*Heading
** Job name: PlateTrianglesLinear Model name: test_plate_force_TrianglesLinear
** Generated by: Abaqus/CAE 2017
*Preprint, echo=NO, model=NO, history=NO, contact=NO
** ----------------------------------------------------------------
** 
** PART INSTANCE: Part-1-1
** 
*Node
      1,           0.,           0.
      2,         0.25,           0.
      3,          0.5,           0.
      4,         0.75,           0.
      5,           1.,           0.
      6,         1.25,           0.
      7,          1.5,           0.
      8,         1.75,           0.
      9,           2.,           0.
     10,         2.25,           0.
     11,          2.5,           0.
     12,         2.75,           0.
     13,           3.,           0.
     14,         3.25,           0.
     15,          3.5,           0.
     16,         3.75,           0.
     17,           4.,           0.
     18,         4.25,           0.
     19,          4.5,           0.
     20,         4.75,           0.
** ... 295 like lines cut
*Element, type=CPE3
  1,   1,   2,  23
  2,  23,  22,   1
  3,   2,   3,  24
  4,  24,  23,   2
  5,   3,   4,  25
  6,  25,  24,   3
  7,   4,   5,  26
  8,  26,  25,   4
  9,   5,   6,  27
 10,  27,  26,   5
 11,   6,   7,  28
 12,  28,  27,   6
 13,   7,   8,  29
 14,  29,  28,   7
 15,   8,   9,  30
 16,  30,  29,   8
 17,   9,  10,  31
 18,  31,  30,   9
 19,  10,  11,  32
 20,  32,  31,  10
** ... 540 like lines cut
*Nset, nset=Part-1-1__PickedSet8, generate
   1,  315,    1
*Elset, elset=Part-1-1__PickedSet8, generate
   1,  560,    1
** Section: Section-1-PART-1-1__PICKEDSET10
*Solid Section, elset=Part-1-1__PickedSet8, material=MATERIAL-1
1.,
*System
*Nset, nset=PART-1-1_BOTTOM, generate
  1,  21,   1
*Nset, nset=PART-1-1_LEFT, generate
   1,  295,   21
*Nset, nset=PART-1-1_RIGHT, generate
  21,  315,   21
*Nset, nset=PART-1-1_TOP, generate
 295,  315,    1
*Amplitude, name=AMP-1
             0.,              0.,             10.,              1.
** 
** MATERIALS
** 
*Material, name=MATERIAL-1
*Elastic
100., 0.3
** ----------------------------------------------------------------
** 
** STEP: Step-1
** 
*Step, name=Step-1, nlgeom=NO
*Static
1, 1., 1e-05, 1.
** 
** BOUNDARY CONDITIONS
** 
** Name: Disp-BC-1 Type: Displacement/Rotation
*Boundary
PART-1-1_LEFT, 1, 1
** Name: Disp-BC-2 Type: Displacement/Rotation
*Boundary
PART-1-1_BOTTOM, 2, 2
** 
** LOADS
** 
** Name: Load-1   Type: Concentrated force
*Cload, amplitude=AMP-1
PART-1-1_RIGHT, 1, 10.
** 
** OUTPUT REQUESTS
** 
*Restart, write, frequency=0
** 
** FIELD OUTPUT: F-Output-1
** 
*Output, field, variable=PRESELECT
** 
** HISTORY OUTPUT: H-Output-1
** 
*Output, history, variable=PRESELECT
*End Step
