*Heading
** Job name: PlateTriangles Model name: test_plate_force_Triangles
** Generated by: Abaqus/CAE 2017
*Preprint, echo=NO, model=NO, history=NO, contact=NO
** ----------------------------------------------------------------
** 
** PART INSTANCE: Part-1-1
** 
*Node
      1,           0.,           0.
      2,         0.25,           0.
      3,          0.5,           0.
      4,         0.75,           0.
      5,           1.,           0.
      6,         1.25,           0.
      7,          1.5,           0.
      8,         1.75,           0.
      9,           2.,           0.
     10,         2.25,           0.
     11,          2.5,           0.
     12,         2.75,           0.
     13,           3.,           0.
     14,         3.25,           0.
     15,          3.5,           0.
     16,         3.75,           0.
     17,           4.,           0.
     18,         4.25,           0.
     19,          4.5,           0.
     20,         4.75,           0.
** ... 1169 like lines cut
*Element, type=CPE6
  1,    1,    2,   23,  316,  317,  318
  2,   23,   22,    1,  319,  320,  318
  3,    2,    3,   24,  321,  322,  323
  4,   24,   23,    2,  324,  317,  323
  5,    3,    4,   25,  325,  326,  327
  6,   25,   24,    3,  328,  322,  327
  7,    4,    5,   26,  329,  330,  331
  8,   26,   25,    4,  332,  326,  331
  9,    5,    6,   27,  333,  334,  335
 10,   27,   26,    5,  336,  330,  335
 11,    6,    7,   28,  337,  338,  339
 12,   28,   27,    6,  340,  334,  339
 13,    7,    8,   29,  341,  342,  343
 14,   29,   28,    7,  344,  338,  343
 15,    8,    9,   30,  345,  346,  347
 16,   30,   29,    8,  348,  342,  347
 17,    9,   10,   31,  349,  350,  351
 18,   31,   30,    9,  352,  346,  351
 19,   10,   11,   32,  353,  354,  355
 20,   32,   31,   10,  356,  350,  355
** ... 540 like lines cut
*Nset, nset=Part-1-1__PickedSet8, generate
    1,  1189,     1
*Elset, elset=Part-1-1__PickedSet8, generate
   1,  560,    1
** Section: Section-1-PART-1-1__PICKEDSET10
*Solid Section, elset=Part-1-1__PickedSet8, material=MATERIAL-1
1.,
*System
*Nset, nset=PART-1-1_BOTTOM
   1,   2,   3,   4,   5,   6,   7,   8,   9,  10,  11,  12,  13,  14,  15,  16
  17,  18,  19,  20,  21, 316, 321, 325, 329, 333, 337, 341, 345, 349, 353, 357
 361, 365, 369, 373, 377, 381, 385, 389, 393
*Nset, nset=PART-1-1_LEFT
    1,   22,   43,   64,   85,  106,  127,  148,  169,  190,  211,  232,  253,  274,  295,  320
  400,  461,  522,  583,  644,  705,  766,  827,  888,  949, 1010, 1071, 1132
*Nset, nset=PART-1-1_RIGHT
   21,   42,   63,   84,  105,  126,  147,  168,  189,  210,  231,  252,  273,  294,  315,  394
  455,  516,  577,  638,  699,  760,  821,  882,  943, 1004, 1065, 1126, 1187
*Nset, nset=PART-1-1_TOP
  295,  296,  297,  298,  299,  300,  301,  302,  303,  304,  305,  306,  307,  308,  309,  310
  311,  312,  313,  314,  315, 1131, 1135, 1138, 1141, 1144, 1147, 1150, 1153, 1156, 1159, 1162
 1165, 1168, 1171, 1174, 1177, 1180, 1183, 1186, 1189
*Amplitude, name=AMP-1
             0.,              0.,             10.,              1.
** 
** MATERIALS
** 
*Material, name=MATERIAL-1
*Elastic
100., 0.3
** ----------------------------------------------------------------
** 
** STEP: Step-1
** 
*Step, name=Step-1, nlgeom=NO
*Static
1., 1., 1e-05, 1.
** 
** BOUNDARY CONDITIONS
** 
** Name: Disp-BC-1 Type: Displacement/Rotation
*Boundary
PART-1-1_LEFT, 1, 1
** Name: Disp-BC-2 Type: Displacement/Rotation
*Boundary
PART-1-1_BOTTOM, 2, 2
** 
** LOADS
** 
** Name: Load-1   Type: Concentrated force
*Cload, amplitude=AMP-1
PART-1-1_RIGHT, 1, 10.
** 
** OUTPUT REQUESTS
** 
*Restart, write, frequency=0
** 
** FIELD OUTPUT: F-Output-1
** 
*Output, field, variable=PRESELECT
** 
** HISTORY OUTPUT: H-Output-1
** 
*Output, history, variable=PRESELECT
*End Step
