*Heading
** Job name: singlePlate_Force Model name: test_plate_force
** Generated by: Abaqus/CAE 2017
*Preprint, echo=NO, model=NO, history=NO, contact=NO
** ----------------------------------------------------------------
** 
** PART INSTANCE: Part-1-1
** 
*Node
      1,           0.,           0.
      2,         0.25,           0.
      3,          0.5,           0.
      4,         0.75,           0.
      5,           1.,           0.
      6,         1.25,           0.
      7,          1.5,           0.
      8,         1.75,           0.
      9,           2.,           0.
     10,         2.25,           0.
     11,          2.5,           0.
     12,         2.75,           0.
     13,           3.,           0.
     14,         3.25,           0.
     15,          3.5,           0.
     16,         3.75,           0.
     17,           4.,           0.
     18,         4.25,           0.
     19,          4.5,           0.
     20,         4.75,           0.
** ... 889 like lines cut
*Element, type=CPE8
  1,   1,   2,  23,  22, 316, 317, 318, 319
  2,   2,   3,  24,  23, 320, 321, 322, 317
  3,   3,   4,  25,  24, 323, 324, 325, 321
  4,   4,   5,  26,  25, 326, 327, 328, 324
  5,   5,   6,  27,  26, 329, 330, 331, 327
  6,   6,   7,  28,  27, 332, 333, 334, 330
  7,   7,   8,  29,  28, 335, 336, 337, 333
  8,   8,   9,  30,  29, 338, 339, 340, 336
  9,   9,  10,  31,  30, 341, 342, 343, 339
 10,  10,  11,  32,  31, 344, 345, 346, 342
 11,  11,  12,  33,  32, 347, 348, 349, 345
 12,  12,  13,  34,  33, 350, 351, 352, 348
 13,  13,  14,  35,  34, 353, 354, 355, 351
 14,  14,  15,  36,  35, 356, 357, 358, 354
 15,  15,  16,  37,  36, 359, 360, 361, 357
 16,  16,  17,  38,  37, 362, 363, 364, 360
 17,  17,  18,  39,  38, 365, 366, 367, 363
 18,  18,  19,  40,  39, 368, 369, 370, 366
 19,  19,  20,  41,  40, 371, 372, 373, 369
 20,  20,  21,  42,  41, 374, 375, 376, 372
** ... 260 like lines cut
*Nset, nset=Part-1-1__PickedSet8, generate
   1,  909,    1
*Elset, elset=Part-1-1__PickedSet8, generate
   1,  280,    1
** Section: Section-1-PART-1-1__PICKEDSET10
*Solid Section, elset=Part-1-1__PickedSet8, material=MATERIAL-1
1.,
*System
*Nset, nset=PART-1-1_BOTTOM
   1,   2,   3,   4,   5,   6,   7,   8,   9,  10,  11,  12,  13,  14,  15,  16
  17,  18,  19,  20,  21, 316, 320, 323, 326, 329, 332, 335, 338, 341, 344, 347
 350, 353, 356, 359, 362, 365, 368, 371, 374
*Nset, nset=PART-1-1_LEFT
   1,  22,  43,  64,  85, 106, 127, 148, 169, 190, 211, 232, 253, 274, 295, 319
 379, 420, 461, 502, 543, 584, 625, 666, 707, 748, 789, 830, 871
*Nset, nset=PART-1-1_RIGHT
  21,  42,  63,  84, 105, 126, 147, 168, 189, 210, 231, 252, 273, 294, 315, 375
 416, 457, 498, 539, 580, 621, 662, 703, 744, 785, 826, 867, 908
*Nset, nset=PART-1-1_TOP
 295, 296, 297, 298, 299, 300, 301, 302, 303, 304, 305, 306, 307, 308, 309, 310
 311, 312, 313, 314, 315, 870, 873, 875, 877, 879, 881, 883, 885, 887, 889, 891
 893, 895, 897, 899, 901, 903, 905, 907, 909
*Amplitude, name=AMP-1
             0.,              0.,             10.,              1.
** 
** MATERIALS
** 
*Material, name=MATERIAL-1
*Elastic
100., 0.3
** ----------------------------------------------------------------
** 
** STEP: Step-1
** 
*Step, name=Step-1, nlgeom=NO
*Static
0.1, 1., 1e-05, 1.
** 
** BOUNDARY CONDITIONS
** 
** Name: Disp-BC-1 Type: Displacement/Rotation
*Boundary
PART-1-1_LEFT, 1, 1
** Name: Disp-BC-2 Type: Displacement/Rotation
*Boundary
PART-1-1_BOTTOM, 2, 2
** 
** LOADS
** 
** Name: Load-1   Type: Concentrated force
*Cload
PART-1-1_RIGHT, 1, 10.
** 
** OUTPUT REQUESTS
** 
*Restart, write, frequency=0
** 
** FIELD OUTPUT: F-Output-1
** 
*Output, field, variable=PRESELECT
** 
** HISTORY OUTPUT: H-Output-1
** 
*Output, history, variable=PRESELECT
*End Step
