*Heading
** Job name: test1_singleElement Model name: Model-1
** Generated by: Abaqus/CAE 2017
*Preprint, echo=NO, model=NO, history=NO, contact=NO
**
** PARTS
**
*Part, name=Part-1
*Node
      1,           0.,           0.
      2,           2.,           0.
      3,           0.,           2.
      4,           2.,           2.
      5,           1.,           0.
      6,           2.,           1.
      7,           1.,           2.
      8,           0.,           1.
*Element, type=CPE8
1, 1, 2, 4, 3, 5, 6, 7, 8
*Nset, nset=_PickedSet10, internal, generate
 1,  8,  1
*Elset, elset=_PickedSet10, internal
 1,
*Elset, elset=false_test, internal
100,22,345,332 
*Nset, nset=left
 1, 3, 8
*Nset, nset=right, generate
 2,  6,  2
*Nset, nset=top
 3, 4, 7
*Nset, nset=bottom
 1, 2, 5
** Section: Section-1
*Solid Section, elset=_PickedSet10, material=Material-1
0.0001,
*End Part
**  
**
** ASSEMBLY
**
*Assembly, name=Assembly
**  
*Instance, name=Part-1-1, part=Part-1
*End Instance
**  
*End Assembly
*Amplitude, name=Amp-1
             0.,              0.,             10.,              1.
** 
** MATERIALS
** 
*Material, name=Material-1
*Elastic
100., 0.3
** ----------------------------------------------------------------
** 
** STEP: Step-1
** 
*Step, name=Step-1, nlgeom=NO
*Static
1., 1., 1e-05, 1.
** 
** BOUNDARY CONDITIONS
** 
** Name: BC-1 Type: Displacement/Rotation
*Boundary
Part-1-1.left, 1, 1
** Name: BC-2 Type: Displacement/Rotation
*Boundary
Part-1-1.bottom, 2, 2
** Name: BC-3 Type: Displacement/Rotation
*Boundary, amplitude=Amp-1
Part-1-1.right, 1, 1, 10.
** 
** OUTPUT REQUESTS
** 
*Restart, write, frequency=0
** 
** FIELD OUTPUT: F-Output-1
** 
*Output, field, variable=PRESELECT
** 
** HISTORY OUTPUT: H-Output-1
** 
*Output, history, variable=PRESELECT
*End Step
